%nprocshared=8
%mem=6GB
%chk=Ethan_freq_rmp2_nosymm.chk
# rb3lyp/6-311++g(2d,2p) nosymm

Ethan_sp_rdft

0 1
 C                 -3.61778300    0.77802100    0.00532600
 H                 -3.27132200   -0.25183200   -0.02330200
 H                 -3.27116700    1.26805300   -0.90086300
 H                 -4.70422500    0.76155500   -0.02338500
 C                 -3.10878900    1.49782800    1.25207900
 H                 -2.02234700    1.51426900    1.28080500
 H                 -3.45522700    2.52769000    1.28069200
 H                 -3.45542900    1.00781300    2.15826800

