%nprocshared=8
%mem=8MB
%chk=MeOOH_opt.chk
# opt hf/3-21g

MeOOH

0 1
 C                 -1.93232071   -0.41132180   -0.29210923
 H                 -1.41459231    0.33142419   -0.86235979
 O                 -3.31406319   -0.23142305    0.02933149
 H                 -3.50602947    0.70630448    0.10292524
 O                 -1.24249561   -1.58386238    0.14856062


