%nprocshared=8
%mem=6GB
%chk=Methan_opt_rmp2.chk
# rhf/6-311++g(2d,2p)

Methan_opt_rmp2

0 1
 C                 -2.07006364   -0.47770700    0.00000000
 H                 -1.71340921   -1.48651700    0.00000000
 H                 -1.71339080    0.02669119    0.87365150
 H                 -1.71339080    0.02669119   -0.87365150
 H                 -3.14006364   -0.47769382    0.00000000

