%nprocshared=8
%mem=8GB
%chk=Veresterung.chk
# opt=calcfc hf/3-21g

Veresterung

0 1
 C                 -2.22652212   -0.50807531   -0.05146977
 H                 -1.86985241   -0.00340381    0.82202516
 H                 -1.87018705   -0.00370895   -0.92527747
 H                 -3.29652204   -0.50842371   -0.05126479
 C                  1.14497317   -0.87730310   -0.23839375
 H                  1.66684907   -0.14719809   -0.82105336
 O                 -1.74941646   -1.85613695   -0.05132573
 H                 -2.06911895   -2.30865257    0.73265127
 O                 -0.18317582   -0.61038296    0.21950788
 O                  1.77566186   -2.11997105    0.08239926
 H                  2.72512372   -1.99105448    0.14158272

